
OS:Version,
  {cf0c8f3e-2f78-4bce-81aa-9f9459cb7df5}, !- Handle
  1.13.2;                                 !- Version Identifier

OS:Site,
  {c57bbf3e-5555-4e8f-a064-f03eb5a0e42f}, !- Handle
  Whitehorse_YT_CAN,                      !- Name
  60.72,                                  !- Latitude {deg}
  -135.07,                                !- Longitude {deg}
  -8,                                     !- Time Zone {hr}
  703,                                    !- Elevation {m}
  City;                                   !- Terrain

OS:SimulationControl,
  {8319685c-4a24-4d40-bf6f-d94387dacb21}, !- Handle
  Yes,                                    !- Do Zone Sizing Calculation
  Yes,                                    !- Do System Sizing Calculation
  Yes,                                    !- Do Plant Sizing Calculation
  No,                                     !- Run Simulation for Sizing Periods
  Yes,                                    !- Run Simulation for Weather File Run Periods
  0.04,                                   !- Loads Convergence Tolerance Value
  0.2,                                    !- Temperature Convergence Tolerance Value {deltaC}
  FullInteriorAndExterior,                !- Solar Distribution
  25,                                     !- Maximum Number of Warmup Days
  6;                                      !- Minimum Number of Warmup Days

OS:Surface,
  {aeb5cd29-a61e-4f1d-a376-0e8c63c45f3b}, !- Handle
  Room_2_Flr_6_Ceiling,                   !- Name
  RoofCeiling,                            !- Surface Type
  ,                                       !- Construction Name
  {735c6fa8-525c-45a3-82b3-b38ec3245a8f}, !- Space Name
  Outdoors,                               !- Outside Boundary Condition
  ,                                       !- Outside Boundary Condition Object
  SunExposed,                             !- Sun Exposure
  WindExposed,                            !- Wind Exposure
  ,                                       !- View Factor to Ground
  ,                                       !- Number of Vertices
  4.572, 14.326, 19.2,                    !- X,Y,Z Vertex 1 {m}
  4.572, 22.86, 19.2,                     !- X,Y,Z Vertex 2 {m}
  0, 22.86, 19.2,                         !- X,Y,Z Vertex 3 {m}
  0, 14.326, 19.2;                        !- X,Y,Z Vertex 4 {m}

OS:Connection,
  {781cba12-e6df-4891-9f19-d4162ef2e789}, !- Handle
  {82196ee2-affe-4413-892e-8bf2a47c3d77}, !- Name
  ,                                       !- Source Object
  11,                                     !- Outlet Port
  ,                                       !- Target Object
  2;                                      !- Inlet Port

OS:Space,
  {735c6fa8-525c-45a3-82b3-b38ec3245a8f}, !- Handle
  Room_2_Flr_6,                           !- Name
  {18ce8b0e-85c8-4449-a8ea-835413a6cfeb}, !- Space Type Name
  ,                                       !- Default Construction Set Name
  ,                                       !- Default Schedule Set Name
  0,                                      !- Direction of Relative North {deg}
  0,                                      !- X Origin {m}
  0,                                      !- Y Origin {m}
  0,                                      !- Z Origin {m}
  {06a67d6f-d108-47ee-8c20-6d76ac426f05}, !- Building Story Name
  {43eb1515-627f-4dd1-b808-1cbf8a25bed7}, !- Thermal Zone Name
  Yes;                                    !- Part of Total Floor Area

OS:Connection,
  {4c0e5a9e-286b-489f-b267-6f34abc63eb3}, !- Handle
  {56b45f19-65b8-4348-8026-e12e4644f5e8}, !- Name
  ,                                       !- Source Object
  11,                                     !- Outlet Port
  ,                                       !- Target Object
  2;                                      !- Inlet Port

OS:Space,
  {1c9aeaea-a105-4381-890b-4d9f9ad931ee}, !- Handle
  Corridor_Flr_3,                         !- Name
  {68656ac1-6106-4e3e-b293-613ea2552a13}, !- Space Type Name
  ,                                       !- Default Construction Set Name
  ,                                       !- Default Schedule Set Name
  0,                                      !- Direction of Relative North {deg}
  0,                                      !- X Origin {m}
  0,                                      !- Y Origin {m}
  0,                                      !- Z Origin {m}
  {5f9ffb46-82f6-40f8-8c82-2a254c3a0d9e}, !- Building Story Name
  {0e698b6d-fadb-4b5a-9a66-760652838526}, !- Thermal Zone Name
  Yes;                                    !- Part of Total Floor Area

OS:ConvergenceLimits,
  {70f72b8f-0f12-4d6c-9b47-243771b0e570}, !- Handle
  1,                                      !- Minimum System Timestep {minutes}
  20;                                     !- Maximum HVAC Iterations

OS:Surface,
  {c6949061-d672-44fe-ae38-b59964db2117}, !- Handle
  Banquet_Flr_6_Wall_North,               !- Name
  Wall,                                   !- Surface Type
  ,                                       !- Construction Name
  {ba3048dd-f7da-474c-bbec-d2605f9e6cc4}, !- Space Name
  Outdoors,                               !- Outside Boundary Condition
  ,                                       !- Outside Boundary Condition Object
  SunExposed,                             !- Sun Exposure
  WindExposed,                            !- Wind Exposure
  ,                                       !- View Factor to Ground
  ,                                       !- Number of Vertices
  42.367, 22.86, 19.2,                    !- X,Y,Z Vertex 1 {m}
  42.367, 22.86, 16.152,                  !- X,Y,Z Vertex 2 {m}
  10.363, 22.86, 16.152,                  !- X,Y,Z Vertex 3 {m}
  10.363, 22.86, 19.2;                    !- X,Y,Z Vertex 4 {m}

OS:Connection,
  {5070de4c-886e-4c17-b6b0-35b5d628bfb8}, !- Handle
  {dc7fc591-b2d6-42da-b88b-31c586c32961}, !- Name
  ,                                       !- Source Object
  11,                                     !- Outlet Port
  ,                                       !- Target Object
  2;                                      !- Inlet Port

OS:Space,
  {ba3048dd-f7da-474c-bbec-d2605f9e6cc4}, !- Handle
  Banquet_Flr_6,                          !- Name
  {e552f60e-2e81-46d3-a76e-74add33516fa}, !- Space Type Name
  ,                                       !- Default Construction Set Name
  ,                                       !- Default Schedule Set Name
  0,                                      !- Direction of Relative North {deg}
  0,                                      !- X Origin {m}
  0,                                      !- Y Origin {m}
  0,                                      !- Z Origin {m}
  {06a67d6f-d108-47ee-8c20-6d76ac426f05}, !- Building Story Name
  {4b97c863-0b6c-4c42-9e14-1536aef96f76}, !- Thermal Zone Name
  Yes;                                    !- Part of Total Floor Area

OS:Connection,
  {65d7cf7d-d932-493f-89db-86a3c9021e51}, !- Handle
  {5a7575ae-9035-45b0-8573-f6f2bbf36667}, !- Name
  ,                                       !- Source Object
  11,                                     !- Outlet Port
  ,                                       !- Target Object
  2;                                      !- Inlet Port

OS:Space,
  {b4cff31b-2b2e-470e-b7c8-55b05f6374f6}, !- Handle
  Laundry_Flr_1,                          !- Name
  {6083d016-a422-42e1-ae24-836f7135063b}, !- Space Type Name
  ,                                       !- Default Construction Set Name
  ,                                       !- Default Schedule Set Name
  0,                                      !- Direction of Relative North {deg}
  0,                                      !- X Origin {m}
  0,                                      !- Y Origin {m}
  0,                                      !- Z Origin {m}
  {43f3a983-ef94-466e-a3d7-639887b4a479}, !- Building Story Name
  {10ecc6bb-39dc-44cf-a7f4-0e27a0950a8a}, !- Thermal Zone Name
  Yes;                                    !- Part of Total Floor Area

OS:Surface,
  {7a866f98-032d-41ac-a05d-868768c9a2ff}, !- Handle
  Lobby_Flr_1_Wall_2_West,                !- Name
  Wall,                                   !- Surface Type
  ,                                       !- Construction Name
  {5f877673-6afe-4f1f-960f-7e78d281ff4b}, !- Space Name
  Surface,                                !- Outside Boundary Condition
  {3d0a89d0-0a71-4089-9adc-9c61c7036422}, !- Outside Boundary Condition Object
  NoSun,                                  !- Sun Exposure
  NoWind,                                 !- Wind Exposure
  ,                                       !- View Factor to Ground
  ,                                       !- Number of Vertices
  11.582, 5.791, 3.9624,                  !- X,Y,Z Vertex 1 {m}
  11.582, 5.791, 0,                       !- X,Y,Z Vertex 2 {m}
  11.582, 0, 0,                           !- X,Y,Z Vertex 3 {m}
  11.582, 0, 3.9624;                      !- X,Y,Z Vertex 4 {m}

OS:Connection,
  {8d17990b-3f1e-46be-9dbb-a4a09f7ccc3f}, !- Handle
  {84618c45-75ea-4662-9b59-11311a49bba0}, !- Name
  ,                                       !- Source Object
  11,                                     !- Outlet Port
  ,                                       !- Target Object
  2;                                      !- Inlet Port

OS:Space,
  {5f877673-6afe-4f1f-960f-7e78d281ff4b}, !- Handle
  Lobby_Flr_1,                            !- Name
  {98b2b12f-9f64-48d1-8648-141cf24b38bf}, !- Space Type Name
  ,                                       !- Default Construction Set Name
  ,                                       !- Default Schedule Set Name
  0,                                      !- Direction of Relative North {deg}
  0,                                      !- X Origin {m}
  0,                                      !- Y Origin {m}
  0,                                      !- Z Origin {m}
  {43f3a983-ef94-466e-a3d7-639887b4a479}, !- Building Story Name
  {cef6d5e5-9fcc-4d3a-afd4-50664f3783a1}, !- Thermal Zone Name
  Yes;                                    !- Part of Total Floor Area

OS:Connection,
  {f7376c8c-aa24-405d-a5e4-3c56fed1b56e}, !- Handle
  {c8c77bc6-b004-4604-a782-f72cb57f88ba}, !- Name
  ,                                       !- Source Object
  11,                                     !- Outlet Port
  ,                                       !- Target Object
  2;                                      !- Inlet Port

OS:Space,
  {53c7fa8b-d0a9-4d59-9f72-ab5b6de28e90}, !- Handle
  Kitchen_Flr_6,                          !- Name
  {f7ff1b79-75a8-439f-ab33-7fc738cffe44}, !- Space Type Name
  ,                                       !- Default Construction Set Name
  ,                                       !- Default Schedule Set Name
  0,                                      !- Direction of Relative North {deg}
  0,                                      !- X Origin {m}
  0,                                      !- Y Origin {m}
  0,                                      !- Z Origin {m}
  {06a67d6f-d108-47ee-8c20-6d76ac426f05}, !- Building Story Name
  {481c5525-4e01-41b6-ae33-a685b41f100c}, !- Thermal Zone Name
  Yes;                                    !- Part of Total Floor Area

OS:Surface,
  {3d0a89d0-0a71-4089-9adc-9c61c7036422}, !- Handle
  Retail_1_Flr_1_Wall_East,               !- Name
  Wall,                                   !- Surface Type
  ,                                       !- Construction Name
  {1a878509-17bb-4788-a93c-b231afdbd395}, !- Space Name
  Surface,                                !- Outside Boundary Condition
  {7a866f98-032d-41ac-a05d-868768c9a2ff}, !- Outside Boundary Condition Object
  NoSun,                                  !- Sun Exposure
  NoWind,                                 !- Wind Exposure
  ,                                       !- View Factor to Ground
  ,                                       !- Number of Vertices
  11.582, 0, 3.9624,                      !- X,Y,Z Vertex 1 {m}
  11.582, 0, 0,                           !- X,Y,Z Vertex 2 {m}
  11.582, 5.791, 0,                       !- X,Y,Z Vertex 3 {m}
  11.582, 5.791, 3.9624;                  !- X,Y,Z Vertex 4 {m}

OS:Connection,
  {eb899891-4838-40c2-89a9-86d7fdbfc42f}, !- Handle
  {39e89701-0d42-46a4-80f6-29866275bb9a}, !- Name
  ,                                       !- Source Object
  11,                                     !- Outlet Port
  ,                                       !- Target Object
  2;                                      !- Inlet Port

OS:Space,
  {1a878509-17bb-4788-a93c-b231afdbd395}, !- Handle
  Retail_1_Flr_1,                         !- Name
  {a391100e-66c5-40d4-8cce-66ebb282ec0d}, !- Space Type Name
  ,                                       !- Default Construction Set Name
  ,                                       !- Default Schedule Set Name
  0,                                      !- Direction of Relative North {deg}
  0,                                      !- X Origin {m}
  0,                                      !- Y Origin {m}
  0,                                      !- Z Origin {m}
  {43f3a983-ef94-466e-a3d7-639887b4a479}, !- Building Story Name
  {7302a48c-3865-4c88-846b-da5674ae3f56}, !- Thermal Zone Name
  Yes;                                    !- Part of Total Floor Area

OS:Building,
  {bb5b588d-ed54-4560-ae15-dfaff42d1cbb}, !- Handle
  NECB 2011-LargeHotel-NECB HDD Method-CAN_YT_Whitehorse.719640_CWEC.epw created: 2016-11-24 16:45:52 +0000, !- Name
  ,                                       !- Building Sector Type
  0,                                      !- North Axis {deg}
  ,                                       !- Nominal Floor to Floor Height {m}
  ,                                       !- Space Type Name
  {1652a0b1-dea9-421d-bad1-1c0942d396d3}, !- Default Construction Set Name
  ,                                       !- Default Schedule Set Name
  ,                                       !- Standards Number of Stories
  ,                                       !- Standards Number of Above Ground Stories
  LargeHotel;                             !- Standards Building Type

OS:Connection,
  {3090efff-d176-4979-b979-fc01b07b5836}, !- Handle
  {4dd1672b-40e8-4beb-9957-e8bc89368ca0}, !- Name
  ,                                       !- Source Object
  11,                                     !- Outlet Port
  ,                                       !- Target Object
  2;                                      !- Inlet Port

OS:Space,
  {60361c47-6132-479f-892b-2ef2551c2988}, !- Handle
  Room_1_Flr_3,                           !- Name
  {18ce8b0e-85c8-4449-a8ea-835413a6cfeb}, !- Space Type Name
  ,                                       !- Default Construction Set Name
  ,                                       !- Default Schedule Set Name
  0,                                      !- Direction of Relative North {deg}
  0,                                      !- X Origin {m}
  0,                                      !- Y Origin {m}
  0,                                      !- Z Origin {m}
  {5f9ffb46-82f6-40f8-8c82-2a254c3a0d9e}, !- Building Story Name
  {8deceb47-e93f-4a00-8e32-a56783ef50ed}, !- Thermal Zone Name
  Yes;                                    !- Part of Total Floor Area

OS:Surface,
  {3478624a-5157-4245-b315-fbf2db6bd787}, !- Handle
  Basement_Ceiling_1,                     !- Name
  RoofCeiling,                            !- Surface Type
  ,                                       !- Construction Name
  {e8215437-4d6e-4194-81a3-8e59d7aab856}, !- Space Name
  Surface,                                !- Outside Boundary Condition
  {446fb5be-4dcf-466e-9cf9-aa3d479afdde}, !- Outside Boundary Condition Object
  NoSun,                                  !- Sun Exposure
  NoWind,                                 !- Wind Exposure
  ,                                       !- View Factor to Ground
  ,                                       !- Number of Vertices
  11.582, 0, 0,                           !- X,Y,Z Vertex 1 {m}
  11.582, 5.791, 0,                       !- X,Y,Z Vertex 2 {m}
  0, 5.791, 0,                            !- X,Y,Z Vertex 3 {m}
  0, 0, 0;                                !- X,Y,Z Vertex 4 {m}

OS:Connection,
  {3aa6f83c-5a18-431b-b1f5-4478b9f83a74}, !- Handle
  {731e3742-2032-4cc2-a737-ad780c614b2a}, !- Name
  ,                                       !- Source Object
  11,                                     !- Outlet Port
  ,                                       !- Target Object
  2;                                      !- Inlet Port

OS:Space,
  {e8215437-4d6e-4194-81a3-8e59d7aab856}, !- Handle
  Basement,                               !- Name
  {4258df3a-6915-4182-9221-bb82d4ca0f31}, !- Space Type Name
  ,                                       !- Default Construction Set Name
  ,                                       !- Default Schedule Set Name
  0,                                      !- Direction of Relative North {deg}
  0,                                      !- X Origin {m}
  0,                                      !- Y Origin {m}
  0,                                      !- Z Origin {m}
  {4acb13c9-7b60-4d7d-865b-a93f28e4a7db}, !- Building Story Name
  {f18c239c-d4cc-45b7-b3ef-0062581e5739}, !- Thermal Zone Name
  Yes;                                    !- Part of Total Floor Area

OS:Surface,
  {019125a0-77bb-419d-a7f6-68140c061ebb}, !- Handle
  Corridor_Flr_6_Wall_2_West,             !- Name
  Wall,                                   !- Surface Type
  {dd67afcf-6367-47b1-b890-11037252f6ff}, !- Construction Name
  {727f620c-8075-4586-8703-48bde7f60f5c}, !- Space Name
  Adiabatic,                              !- Outside Boundary Condition
  ,                                       !- Outside Boundary Condition Object
  NoSun,                                  !- Sun Exposure
  NoWind,                                 !- Wind Exposure
  ,                                       !- View Factor to Ground
  ,                                       !- Number of Vertices
  4.572, 22.86, 19.2,                     !- X,Y,Z Vertex 1 {m}
  4.572, 22.86, 16.152,                   !- X,Y,Z Vertex 2 {m}
  4.572, 9.449, 16.152,                   !- X,Y,Z Vertex 3 {m}
  4.572, 9.449, 19.2;                     !- X,Y,Z Vertex 4 {m}

OS:Connection,
  {196bd115-1013-46af-a102-7952336117b6}, !- Handle
  {ccda578f-cba8-4d7d-b74d-911c59f948b1}, !- Name
  ,                                       !- Source Object
  11,                                     !- Outlet Port
  ,                                       !- Target Object
  2;                                      !- Inlet Port

OS:Space,
  {727f620c-8075-4586-8703-48bde7f60f5c}, !- Handle
  Corridor_Flr_6,                         !- Name
  {68656ac1-6106-4e3e-b293-613ea2552a13}, !- Space Type Name
  ,                                       !- Default Construction Set Name
  ,                                       !- Default Schedule Set Name
  0,                                      !- Direction of Relative North {deg}
  0,                                      !- X Origin {m}
  0,                                      !- Y Origin {m}
  0,                                      !- Z Origin {m}
  {06a67d6f-d108-47ee-8c20-6d76ac426f05}, !- Building Story Name
  {4771bcc6-9602-4f13-8d10-537404e76238}, !- Thermal Zone Name
  Yes;                                    !- Part of Total Floor Area

OS:Surface,
  {228be3ab-60a2-4075-a255-0ca7e031bd61}, !- Handle
  Room_6_Flr_3_Wall_North,                !- Name
  Wall,                                   !- Surface Type
  ,                                       !- Construction Name
  {43edd94b-1dd2-4c9a-87d9-1a557847cf2c}, !- Space Name
  Outdoors,                               !- Outside Boundary Condition
  ,                                       !- Outside Boundary Condition Object
  SunExposed,                             !- Sun Exposure
  WindExposed,                            !- Wind Exposure
  ,                                       !- View Factor to Ground
  ,                                       !- Number of Vertices
  86.563, 22.86, 10.056,                  !- X,Y,Z Vertex 1 {m}
  86.563, 22.86, 7.008,                   !- X,Y,Z Vertex 2 {m}
  81.991, 22.86, 7.008,                   !- X,Y,Z Vertex 3 {m}
  81.991, 22.86, 10.056;                  !- X,Y,Z Vertex 4 {m}

OS:Connection,
  {cdf9e9c2-4195-48df-8a75-8d35d654843b}, !- Handle
  {1271c4e4-137d-4be7-98c9-bc8e14116999}, !- Name
  ,                                       !- Source Object
  11,                                     !- Outlet Port
  ,                                       !- Target Object
  2;                                      !- Inlet Port

OS:Space,
  {43edd94b-1dd2-4c9a-87d9-1a557847cf2c}, !- Handle
  Room_6_Flr_3,                           !- Name
  {18ce8b0e-85c8-4449-a8ea-835413a6cfeb}, !- Space Type Name
  ,                                       !- Default Construction Set Name
  ,                                       !- Default Schedule Set Name
  0,                                      !- Direction of Relative North {deg}
  0,                                      !- X Origin {m}
  0,                                      !- Y Origin {m}
  0,                                      !- Z Origin {m}
  {5f9ffb46-82f6-40f8-8c82-2a254c3a0d9e}, !- Building Story Name
  {37e2f1a6-c915-47e1-a383-073ae0c88dd9}, !- Thermal Zone Name
  Yes;                                    !- Part of Total Floor Area

OS:Surface,
  {b0779a3c-3a11-4697-babc-7a5313fa15eb}, !- Handle
  Lobby_Flr_1_Wall_1_North,               !- Name
  Wall,                                   !- Surface Type
  ,                                       !- Construction Name
  {5f877673-6afe-4f1f-960f-7e78d281ff4b}, !- Space Name
  Outdoors,                               !- Outside Boundary Condition
  ,                                       !- Outside Boundary Condition Object
  SunExposed,                             !- Sun Exposure
  WindExposed,                            !- Wind Exposure
  ,                                       !- View Factor to Ground
  ,                                       !- Number of Vertices
  53.95, 22.86, 3.9624,                   !- X,Y,Z Vertex 1 {m}
  53.95, 22.86, 0,                        !- X,Y,Z Vertex 2 {m}
  0, 22.86, 0,                            !- X,Y,Z Vertex 3 {m}
  0, 22.86, 3.9624;                       !- X,Y,Z Vertex 4 {m}

OS:Surface,
  {1270c231-dd8a-42a9-a14e-9420d04b6fbe}, !- Handle
  Basement_Ceiling_5,                     !- Name
  RoofCeiling,                            !- Surface Type
  ,                                       !- Construction Name
  {e8215437-4d6e-4194-81a3-8e59d7aab856}, !- Space Name
  Surface,                                !- Outside Boundary Condition
  {bf3482d2-209c-482d-af23-dc13969f1570}, !- Outside Boundary Condition Object
  NoSun,                                  !- Sun Exposure
  NoWind,                                 !- Wind Exposure
  ,                                       !- View Factor to Ground
  ,                                       !- Number of Vertices
  86.563, 5.791, 0,                       !- X,Y,Z Vertex 1 {m}
  86.563, 22.86, 0,                       !- X,Y,Z Vertex 2 {m}
  81.991, 22.86, 0,                       !- X,Y,Z Vertex 3 {m}
  81.991, 5.791, 0;                       !- X,Y,Z Vertex 4 {m}

OS:Connection,
  {e27ebe38-324e-4ef0-b95d-ba89bc1c883c}, !- Handle
  {a7ebaf1b-0c23-4b50-8cdc-a5541812846d}, !- Name
  ,                                       !- Source Object
  11,                                     !- Outlet Port
  ,                                       !- Target Object
  2;                                      !- Inlet Port

OS:Space,
  {f220e1f3-aa91-4513-9f9a-e8dd4a412b4d}, !- Handle
  Room_5_Flr_3,                           !- Name
  {18ce8b0e-85c8-4449-a8ea-835413a6cfeb}, !- Space Type Name
  ,                                       !- Default Construction Set Name
  ,                                       !- Default Schedule Set Name
  0,                                      !- Direction of Relative North {deg}
  0,                                      !- X Origin {m}
  0,                                      !- Y Origin {m}
  0,                                      !- Z Origin {m}
  {5f9ffb46-82f6-40f8-8c82-2a254c3a0d9e}, !- Building Story Name
  {37e2f1a6-c915-47e1-a383-073ae0c88dd9}, !- Thermal Zone Name
  Yes;                                    !- Part of Total Floor Area

OS:Surface,
  {9fadde92-d4f7-4525-8480-9afe67881f7d}, !- Handle
  Corridor_Flr_6_Wall_3_East,             !- Name
  Wall,                                   !- Surface Type
  ,                                       !- Construction Name
  {727f620c-8075-4586-8703-48bde7f60f5c}, !- Space Name
  Surface,                                !- Outside Boundary Condition
  {0b1a5647-b47b-4ce4-9155-63042cc6cea1}, !- Outside Boundary Condition Object
  NoSun,                                  !- Sun Exposure
  NoWind,                                 !- Wind Exposure
  ,                                       !- View Factor to Ground
  ,                                       !- Number of Vertices
  81.991, 5.791, 19.2,                    !- X,Y,Z Vertex 1 {m}
  81.991, 5.791, 16.152,                  !- X,Y,Z Vertex 2 {m}
  81.991, 12.497, 16.152,                 !- X,Y,Z Vertex 3 {m}
  81.991, 12.497, 19.2;                   !- X,Y,Z Vertex 4 {m}

OS:Connection,
  {2b846342-4cb7-49cb-9ade-b452b9a1a898}, !- Handle
  {ef2265f3-8966-4439-9c38-a120d8732421}, !- Name
  ,                                       !- Source Object
  11,                                     !- Outlet Port
  ,                                       !- Target Object
  2;                                      !- Inlet Port

OS:Space,
  {72c99aa5-adda-4d43-8716-a054b8639a94}, !- Handle
  Room_4_Mult19_Flr_3,                    !- Name
  {18ce8b0e-85c8-4449-a8ea-835413a6cfeb}, !- Space Type Name
  ,                                       !- Default Construction Set Name
  ,                                       !- Default Schedule Set Name
  0,                                      !- Direction of Relative North {deg}
  0,                                      !- X Origin {m}
  0,                                      !- Y Origin {m}
  0,                                      !- Z Origin {m}
  {5f9ffb46-82f6-40f8-8c82-2a254c3a0d9e}, !- Building Story Name
  {7bb4983f-c924-46a2-be39-94fcc76439d0}, !- Thermal Zone Name
  Yes;                                    !- Part of Total Floor Area

OS:Surface,
  {8cfcc863-8692-441a-98ac-1f13f4ce09d5}, !- Handle
  Room_3_Mult9_Flr_6_Wall_West,           !- Name
  Wall,                                   !- Surface Type
  {dd67afcf-6367-47b1-b890-11037252f6ff}, !- Construction Name
  {33e71202-8fbd-4e14-b534-3eb0a82a5cec}, !- Space Name
  Adiabatic,                              !- Outside Boundary Condition
  ,                                       !- Outside Boundary Condition Object
  NoSun,                                  !- Sun Exposure
  NoWind,                                 !- Wind Exposure
  ,                                       !- View Factor to Ground
  ,                                       !- Number of Vertices
  4.572, 9.449, 19.2,                     !- X,Y,Z Vertex 1 {m}
  4.572, 9.449, 16.152,                   !- X,Y,Z Vertex 2 {m}
  4.572, 5.791, 16.152,                   !- X,Y,Z Vertex 3 {m}
  4.572, 5.791, 19.2;                     !- X,Y,Z Vertex 4 {m}

OS:Connection,
  {35f1f8fb-47de-4509-a6f8-9631169482b2}, !- Handle
  {fa927db5-9d94-42cd-bffc-a2c549643f47}, !- Name
  ,                                       !- Source Object
  11,                                     !- Outlet Port
  ,                                       !- Target Object
  2;                                      !- Inlet Port

OS:Space,
  {33e71202-8fbd-4e14-b534-3eb0a82a5cec}, !- Handle
  Room_3_Mult9_Flr_6,                     !- Name
  {18ce8b0e-85c8-4449-a8ea-835413a6cfeb}, !- Space Type Name
  ,                                       !- Default Construction Set Name
  ,                                       !- Default Schedule Set Name
  0,                                      !- Direction of Relative North {deg}
  0,                                      !- X Origin {m}
  0,                                      !- Y Origin {m}
  0,                                      !- Z Origin {m}
  {06a67d6f-d108-47ee-8c20-6d76ac426f05}, !- Building Story Name
  {3a1b5140-92ac-434e-beb6-3357cde6484c}, !- Thermal Zone Name
  Yes;                                    !- Part of Total Floor Area

OS:Surface,
  {13861e28-81d3-478c-8e2b-4003e6993767}, !- Handle
  Dining_Flr_6_Floor,                     !- Name
  Floor,                                  !- Surface Type
  {8efa786e-c6f0-4cbb-9494-fe6708e7b40d}, !- Construction Name
  {cb2c0215-3476-427c-ac46-083a99e88a0b}, !- Space Name
  Adiabatic,                              !- Outside Boundary Condition
  ,                                       !- Outside Boundary Condition Object
  NoSun,                                  !- Sun Exposure
  NoWind,                                 !- Wind Exposure
  ,                                       !- View Factor to Ground
  ,                                       !- Number of Vertices
  79.553, 22.86, 16.152,                  !- X,Y,Z Vertex 1 {m}
  79.553, 12.497, 16.152,                 !- X,Y,Z Vertex 2 {m}
  47.549, 12.497, 16.152,                 !- X,Y,Z Vertex 3 {m}
  47.549, 22.86, 16.152;                  !- X,Y,Z Vertex 4 {m}

OS:Connection,
  {0590fd63-4691-4559-9b38-58e973f91ed5}, !- Handle
  {86cce053-8568-46fe-834b-730d06844ef7}, !- Name
  ,                                       !- Source Object
  11,                                     !- Outlet Port
  ,                                       !- Target Object
  2;                                      !- Inlet Port

OS:Space,
  {cb2c0215-3476-427c-ac46-083a99e88a0b}, !- Handle
  Dining_Flr_6,                           !- Name
  {e552f60e-2e81-46d3-a76e-74add33516fa}, !- Space Type Name