
OS:Version,
  {0da1aaac-7473-4398-9310-9458849596ca}, !- Handle
  1.13.2;                                 !- Version Identifier

OS:Connection,
  {b742b2ef-79b6-4b4e-bc85-5c20c1c8300f}, !- Handle
  {15de7a4c-1724-4ba3-a1e6-a66b0ba90514}, !- Name
  ,                                       !- Source Object
  11,                                     !- Outlet Port
  ,                                       !- Target Object
  2;                                      !- Inlet Port

OS:Space,
  {39655c19-15b3-4081-92c2-4613ae84d8e6}, !- Handle
  Zone3 Bulk Storage,                     !- Name
  {c38dec77-d7d1-493f-8873-73fa08cf12c3}, !- Space Type Name
  ,                                       !- Default Construction Set Name
  ,                                       !- Default Schedule Set Name
  0,                                      !- Direction of Relative North {deg}
  0,                                      !- X Origin {m}
  0,                                      !- Y Origin {m}
  0,                                      !- Z Origin {m}
  {320cd57d-6c5c-4d4b-9c82-573c1d24ae87}, !- Building Story Name
  {628653e8-c467-4321-8248-558317933034}, !- Thermal Zone Name
  Yes;                                    !- Part of Total Floor Area

OS:SubSurface,
  {6dac61d8-7411-4423-985c-36b2c5e8b7cf}, !- Handle
  Skylight_r2c3,                          !- Name
  Skylight,                               !- Sub Surface Type
  ,                                       !- Construction Name
  {516ff702-eb03-4a25-9228-e1ad9dc5895c}, !- Surface Name
  ,                                       !- Outside Boundary Condition Object
  ,                                       !- View Factor to Ground
  ,                                       !- Shading Control Name
  ,                                       !- Frame and Divider Name
  ,                                       !- Multiplier
  ,                                       !- Number of Vertices
  37.39673, 51.712914, 8.533984,          !- X,Y,Z Vertex 1 {m}
  37.39673, 52.932114, 8.533984,          !- X,Y,Z Vertex 2 {m}
  36.17753, 52.932114, 8.533984,          !- X,Y,Z Vertex 3 {m}
  36.17753, 51.712914, 8.533984;          !- X,Y,Z Vertex 4 {m}

OS:Surface,
  {516ff702-eb03-4a25-9228-e1ad9dc5895c}, !- Handle
  Bulk Storage Roof,                      !- Name
  RoofCeiling,                            !- Surface Type
  ,                                       !- Construction Name
  {39655c19-15b3-4081-92c2-4613ae84d8e6}, !- Space Name
  Outdoors,                               !- Outside Boundary Condition
  ,                                       !- Outside Boundary Condition Object
  SunExposed,                             !- Sun Exposure
  WindExposed,                            !- Wind Exposure
  ,                                       !- View Factor to Ground
  ,                                       !- Number of Vertices
  45.7177703814647, 30.4785135876431, 8.53398380454007, !- X,Y,Z Vertex 1 {m}
  45.7177703814647, 100.579094839222, 8.53398380454007, !- X,Y,Z Vertex 2 {m}
  0, 100.579094839222, 8.53398380454007,  !- X,Y,Z Vertex 3 {m}
  0, 30.4785135876431, 8.53398380454007;  !- X,Y,Z Vertex 4 {m}

OS:WindowProperty:FrameAndDivider,
  {6bce9be8-2ab5-46ae-a571-5c172afed1ee}, !- Handle
  Skylight_Frame,                         !- Name
  0.7129,                                 !- Frame Width {m}
  ,                                       !- Frame Outside Projection {m}
  ,                                       !- Frame Inside Projection {m}
  283.91,                                 !- Frame Conductance {W/m2-K}
  1,                                      !- Ratio of Frame-Edge Glass Conductance to Center-Of-Glass Conductance
  0.7,                                    !- Frame Solar Absorptance
  0.7,                                    !- Frame Visible Absorptance
  0.9,                                    !- Frame Thermal Hemispherical Emissivity
  ,                                       !- Divider Type
  ,                                       !- Divider Width {m}
  ,                                       !- Number of Horizontal Dividers
  ,                                       !- Number of Vertical Dividers
  ,                                       !- Divider Outside Projection {m}
  ,                                       !- Divider Inside Projection {m}
  ,                                       !- Divider Conductance {W/m2-K}
  1,                                      !- Ratio of Divider-Edge Glass Conductance to Center-Of-Glass Conductance
  ,                                       !- Divider Solar Absorptance
  ,                                       !- Divider Visible Absorptance
  0.9;                                    !- Divider Thermal Hemispherical Emissivity

OS:SubSurface,
  {5985fe05-ad32-4b65-b0c2-46302891e062}, !- Handle
  Fine Storage Left Door,                 !- Name
  Door,                                   !- Sub Surface Type
  ,                                       !- Construction Name
  {e7c4e556-9445-43b4-bfcc-f9fc21f24f21}, !- Surface Name
  ,                                       !- Outside Boundary Condition Object
  ,                                       !- View Factor to Ground
  ,                                       !- Shading Control Name
  ,                                       !- Frame and Divider Name
  1,                                      !- Multiplier
  ,                                       !- Number of Vertices
  0, 20.2682115357827, 2.13349595113502,  !- X,Y,Z Vertex 1 {m}
  0, 20.2682115357827, 0,                 !- X,Y,Z Vertex 2 {m}
  0, 19.3538561281534, 0,                 !- X,Y,Z Vertex 3 {m}
  0, 19.3538561281534, 2.13349595113502;  !- X,Y,Z Vertex 4 {m}

OS:Surface,
  {e7c4e556-9445-43b4-bfcc-f9fc21f24f21}, !- Handle
  Fine Storage Left Wall,                 !- Name
  Wall,                                   !- Surface Type
  ,                                       !- Construction Name
  {cdd6a95f-f907-4c0e-817d-962525d358d0}, !- Space Name
  Outdoors,                               !- Outside Boundary Condition
  ,                                       !- Outside Boundary Condition Object
  SunExposed,                             !- Sun Exposure
  WindExposed,                            !- Wind Exposure
  ,                                       !- View Factor to Ground
  ,                                       !- Number of Vertices
  0, 30.4785135876431, 8.53398380454007,  !- X,Y,Z Vertex 1 {m}
  0, 30.4785135876431, 0,                 !- X,Y,Z Vertex 2 {m}
  0, 9.14355407629293, 0,                 !- X,Y,Z Vertex 3 {m}
  0, 9.14355407629293, 8.53398380454007;  !- X,Y,Z Vertex 4 {m}

OS:Connection,
  {dc04fefb-3f18-45be-8f68-9d2cd3eb4a21}, !- Handle
  {e66b1d83-cc39-44fb-8764-30d98d02c75a}, !- Name
  ,                                       !- Source Object
  11,                                     !- Outlet Port
  ,                                       !- Target Object
  2;                                      !- Inlet Port

OS:Space,
  {cdd6a95f-f907-4c0e-817d-962525d358d0}, !- Handle
  Zone2 Fine Storage,                     !- Name
  {0cd644b8-c927-47df-9c7c-04c1abfe72e9}, !- Space Type Name
  ,                                       !- Default Construction Set Name
  ,                                       !- Default Schedule Set Name
  0,                                      !- Direction of Relative North {deg}
  0,                                      !- X Origin {m}
  0,                                      !- Y Origin {m}
  0,                                      !- Z Origin {m}
  {320cd57d-6c5c-4d4b-9c82-573c1d24ae87}, !- Building Story Name
  {f845aee0-a1a6-4d7b-af6e-1d04bc280033}, !- Thermal Zone Name
  Yes;                                    !- Part of Total Floor Area

OS:Surface,
  {b8444fba-ff4e-4e81-b369-e9f3efc4a2d6}, !- Handle
  Office Roof,                            !- Name
  RoofCeiling,                            !- Surface Type
  ,                                       !- Construction Name
  {12c3d4a0-20ec-4e1f-8040-e70cdfba4a69}, !- Space Name
  Surface,                                !- Outside Boundary Condition
  {a273ffc4-632f-4b89-9d6d-f94185f45049}, !- Outside Boundary Condition Object
  NoSun,                                  !- Sun Exposure
  NoWind,                                 !- Wind Exposure
  ,                                       !- View Factor to Ground
  ,                                       !- Number of Vertices
  25.9067365494966, 0, 4.26699190227003,  !- X,Y,Z Vertex 1 {m}
  25.9067365494966, 9.14355407629293, 4.26699190227003, !- X,Y,Z Vertex 2 {m}
  0, 9.14355407629293, 4.26699190227003,  !- X,Y,Z Vertex 3 {m}
  0, 0, 4.26699190227003;                 !- X,Y,Z Vertex 4 {m}

OS:Connection,
  {3386e9fe-e830-491d-a1bc-dbb0ba0af916}, !- Handle
  {20ab44d7-01dc-49cd-b623-cd8f0a86b916}, !- Name
  ,                                       !- Source Object
  11,                                     !- Outlet Port
  ,                                       !- Target Object
  2;                                      !- Inlet Port

OS:Space,
  {12c3d4a0-20ec-4e1f-8040-e70cdfba4a69}, !- Handle
  Zone1 Office,                           !- Name
  {aaadd5af-8b04-46e6-853f-e697139ca306}, !- Space Type Name
  ,                                       !- Default Construction Set Name
  ,                                       !- Default Schedule Set Name
  0,                                      !- Direction of Relative North {deg}
  0,                                      !- X Origin {m}
  0,                                      !- Y Origin {m}
  0,                                      !- Z Origin {m}
  {320cd57d-6c5c-4d4b-9c82-573c1d24ae87}, !- Building Story Name
  {8de1411d-73d8-41d0-8c75-af4130c643ff}, !- Thermal Zone Name
  Yes;                                    !- Part of Total Floor Area

OS:Surface,
  {a273ffc4-632f-4b89-9d6d-f94185f45049}, !- Handle
  Office Roof Reversed,                   !- Name
  Floor,                                  !- Surface Type
  ,                                       !- Construction Name
  {cdd6a95f-f907-4c0e-817d-962525d358d0}, !- Space Name
  Surface,                                !- Outside Boundary Condition
  {b8444fba-ff4e-4e81-b369-e9f3efc4a2d6}, !- Outside Boundary Condition Object
  NoSun,                                  !- Sun Exposure
  NoWind,                                 !- Wind Exposure
  ,                                       !- View Factor to Ground
  ,                                       !- Number of Vertices
  0, 0, 4.26699190227003,                 !- X,Y,Z Vertex 1 {m}
  0, 9.14355407629293, 4.26699190227003,  !- X,Y,Z Vertex 2 {m}
  25.9067365494966, 9.14355407629293, 4.26699190227003, !- X,Y,Z Vertex 3 {m}
  25.9067365494966, 0, 4.26699190227003;  !- X,Y,Z Vertex 4 {m}

OS:SubSurface,
  {cc340669-2635-4608-ad68-8448960033df}, !- Handle
  Skylight_r7c3,                          !- Name
  Skylight,                               !- Sub Surface Type
  ,                                       !- Construction Name
  {516ff702-eb03-4a25-9228-e1ad9dc5895c}, !- Surface Name
  ,                                       !- Outside Boundary Condition Object
  ,                                       !- View Factor to Ground
  ,                                       !- Shading Control Name
  ,                                       !- Frame and Divider Name
  ,                                       !- Multiplier
  ,                                       !- Number of Vertices
  9.50753, 51.712914, 8.533984,           !- X,Y,Z Vertex 1 {m}
  9.50753, 52.932114, 8.533984,           !- X,Y,Z Vertex 2 {m}
  8.28833, 52.932114, 8.533984,           !- X,Y,Z Vertex 3 {m}
  8.28833, 51.712914, 8.533984;           !- X,Y,Z Vertex 4 {m}

OS:SubSurface,
  {ca7079b5-217f-4c8e-9b5f-7ce447ae706c}, !- Handle
  Skylight_r1c4,                          !- Name
  Skylight,                               !- Sub Surface Type
  ,                                       !- Construction Name
  {516ff702-eb03-4a25-9228-e1ad9dc5895c}, !- Surface Name
  ,                                       !- Outside Boundary Condition Object
  ,                                       !- View Factor to Ground
  ,                                       !- Shading Control Name
  ,                                       !- Frame and Divider Name
  ,                                       !- Multiplier
  ,                                       !- Number of Vertices
  42.97457, 60.348914, 8.533984,          !- X,Y,Z Vertex 1 {m}
  42.97457, 61.568114, 8.533984,          !- X,Y,Z Vertex 2 {m}
  41.75537, 61.568114, 8.533984,          !- X,Y,Z Vertex 3 {m}
  41.75537, 60.348914, 8.533984;          !- X,Y,Z Vertex 4 {m}

OS:Surface,
  {b8b06532-b20c-4b27-b353-fb685ea15ba8}, !- Handle
  Bulk Storage Rear Wall,                 !- Name
  Wall,                                   !- Surface Type
  ,                                       !- Construction Name
  {39655c19-15b3-4081-92c2-4613ae84d8e6}, !- Space Name
  Outdoors,                               !- Outside Boundary Condition
  ,                                       !- Outside Boundary Condition Object
  SunExposed,                             !- Sun Exposure
  WindExposed,                            !- Wind Exposure
  ,                                       !- View Factor to Ground
  ,                                       !- Number of Vertices
  45.7177703814647, 100.579094839222, 8.53398380454007, !- X,Y,Z Vertex 1 {m}
  45.7177703814647, 100.579094839222, 0,  !- X,Y,Z Vertex 2 {m}
  0, 100.579094839222, 0,                 !- X,Y,Z Vertex 3 {m}
  0, 100.579094839222, 8.53398380454007;  !- X,Y,Z Vertex 4 {m}

OS:SubSurface,
  {b189551d-e42f-4762-b7d3-22cefb330f22}, !- Handle
  Skylight_r5c1,                          !- Name
  Skylight,                               !- Sub Surface Type
  ,                                       !- Construction Name
  {516ff702-eb03-4a25-9228-e1ad9dc5895c}, !- Surface Name
  ,                                       !- Outside Boundary Condition Object
  ,                                       !- View Factor to Ground
  ,                                       !- Shading Control Name
  ,                                       !- Frame and Divider Name
  ,                                       !- Multiplier
  ,                                       !- Number of Vertices
  20.66321, 34.440914, 8.533984,          !- X,Y,Z Vertex 1 {m}
  20.66321, 35.660114, 8.533984,          !- X,Y,Z Vertex 2 {m}
  19.44401, 35.660114, 8.533984,          !- X,Y,Z Vertex 3 {m}
  19.44401, 34.440914, 8.533984;          !- X,Y,Z Vertex 4 {m}

OS:Surface,
  {e86312f3-df9c-4a72-8bf5-276fd9968053}, !- Handle
  Bulk Storage Floor,                     !- Name
  Floor,                                  !- Surface Type
  ,                                       !- Construction Name
  {39655c19-15b3-4081-92c2-4613ae84d8e6}, !- Space Name
  Ground,                                 !- Outside Boundary Condition
  ,                                       !- Outside Boundary Condition Object
  NoSun,                                  !- Sun Exposure
  NoWind,                                 !- Wind Exposure
  ,                                       !- View Factor to Ground
  ,                                       !- Number of Vertices
  45.7177703814647, 100.579094839222, 0,  !- X,Y,Z Vertex 1 {m}
  45.7177703814647, 30.4785135876431, 0,  !- X,Y,Z Vertex 2 {m}
  0, 30.4785135876431, 0,                 !- X,Y,Z Vertex 3 {m}
  0, 100.579094839222, 0;                 !- X,Y,Z Vertex 4 {m}

OS:SubSurface,
  {9f541237-384a-4267-84c0-29c65974973b}, !- Handle
  Skylight_r1c2,                          !- Name
  Skylight,                               !- Sub Surface Type
  ,                                       !- Construction Name
  {516ff702-eb03-4a25-9228-e1ad9dc5895c}, !- Surface Name
  ,                                       !- Outside Boundary Condition Object
  ,                                       !- View Factor to Ground
  ,                                       !- Shading Control Name
  ,                                       !- Frame and Divider Name
  ,                                       !- Multiplier
  ,                                       !- Number of Vertices
  42.97457, 43.076914, 8.533984,          !- X,Y,Z Vertex 1 {m}
  42.97457, 44.296114, 8.533984,          !- X,Y,Z Vertex 2 {m}
  41.75537, 44.296114, 8.533984,          !- X,Y,Z Vertex 3 {m}
  41.75537, 43.076914, 8.533984;          !- X,Y,Z Vertex 4 {m}

OS:SubSurface,
  {2d7ae645-bbe8-4865-b17c-c19f599fae46}, !- Handle
  Skylight_r4c3,                          !- Name
  Skylight,                               !- Sub Surface Type
  ,                                       !- Construction Name
  {516ff702-eb03-4a25-9228-e1ad9dc5895c}, !- Surface Name
  ,                                       !- Outside Boundary Condition Object
  ,                                       !- View Factor to Ground
  ,                                       !- Shading Control Name
  ,                                       !- Frame and Divider Name
  ,                                       !- Multiplier
  ,                                       !- Number of Vertices
  26.24105, 51.712914, 8.533984,          !- X,Y,Z Vertex 1 {m}
  26.24105, 52.932114, 8.533984,          !- X,Y,Z Vertex 2 {m}
  25.02185, 52.932114, 8.533984,          !- X,Y,Z Vertex 3 {m}
  25.02185, 51.712914, 8.533984;          !- X,Y,Z Vertex 4 {m}

OS:SubSurface,
  {d7dee294-b5d7-44b5-95a1-700bae533d52}, !- Handle
  Skylight_r5c2,                          !- Name
  Skylight,                               !- Sub Surface Type
  ,                                       !- Construction Name
  {516ff702-eb03-4a25-9228-e1ad9dc5895c}, !- Surface Name
  ,                                       !- Outside Boundary Condition Object
  ,                                       !- View Factor to Ground
  ,                                       !- Shading Control Name
  ,                                       !- Frame and Divider Name
  ,                                       !- Multiplier
  ,                                       !- Number of Vertices
  20.66321, 43.076914, 8.533984,          !- X,Y,Z Vertex 1 {m}
  20.66321, 44.296114, 8.533984,          !- X,Y,Z Vertex 2 {m}
  19.44401, 44.296114, 8.533984,          !- X,Y,Z Vertex 3 {m}
  19.44401, 43.076914, 8.533984;          !- X,Y,Z Vertex 4 {m}

OS:SubSurface,
  {21b9512b-88b8-4df7-8ddf-b5b9f2c9f530}, !- Handle
  Overhead Door 3,                        !- Name
  Door,                                   !- Sub Surface Type
  ,                                       !- Construction Name
  {2eb36d53-8956-4573-9d42-f3de2486a693}, !- Surface Name
  ,                                       !- Outside Boundary Condition Object
  ,                                       !- View Factor to Ground
  ,                                       !- Shading Control Name
  ,                                       !- Frame and Divider Name
  1,                                      !- Multiplier
  ,                                       !- Number of Vertices
  0, 75.8153025492622, 3.04785135876431,  !- X,Y,Z Vertex 1 {m}
  0, 75.8153025492622, 0,                 !- X,Y,Z Vertex 2 {m}
  0, 73.3770214622508, 0,                 !- X,Y,Z Vertex 3 {m}
  0, 73.3770214622508, 3.04785135876431;  !- X,Y,Z Vertex 4 {m}

OS:Surface,
  {2eb36d53-8956-4573-9d42-f3de2486a693}, !- Handle
  Bulk Storage Left Wall,                 !- Name
  Wall,                                   !- Surface Type
  ,                                       !- Construction Name
  {39655c19-15b3-4081-92c2-4613ae84d8e6}, !- Space Name
  Outdoors,                               !- Outside Boundary Condition
  ,                                       !- Outside Boundary Condition Object
  SunExposed,                             !- Sun Exposure
  WindExposed,                            !- Wind Exposure
  ,                                       !- View Factor to Ground
  ,                                       !- Number of Vertices
  0, 100.579094839222, 8.53398380454007,  !- X,Y,Z Vertex 1 {m}
  0, 100.579094839222, 0,                 !- X,Y,Z Vertex 2 {m}
  0, 30.4785135876431, 0,                 !- X,Y,Z Vertex 3 {m}
  0, 30.4785135876431, 8.53398380454007;  !- X,Y,Z Vertex 4 {m}

OS:SubSurface,
  {eafc8f7a-abc5-4cd4-9dbf-f615e529ab78}, !- Handle
  Skylight_r3c1,                          !- Name
  Skylight,                               !- Sub Surface Type
  ,                                       !- Construction Name
  {516ff702-eb03-4a25-9228-e1ad9dc5895c}, !- Surface Name
  ,                                       !- Outside Boundary Condition Object
  ,                                       !- View Factor to Ground
  ,                                       !- Shading Control Name
  ,                                       !- Frame and Divider Name
  ,                                       !- Multiplier
  ,                                       !- Number of Vertices
  31.81889, 34.440914, 8.533984,          !- X,Y,Z Vertex 1 {m}
  31.81889, 35.660114, 8.533984,          !- X,Y,Z Vertex 2 {m}
  30.59969, 35.660114, 8.533984,          !- X,Y,Z Vertex 3 {m}
  30.59969, 34.440914, 8.533984;          !- X,Y,Z Vertex 4 {m}

OS:SubSurface,
  {fc6efd96-2946-4c9e-b61a-a97517f30481}, !- Handle
  Overhead Door 7,                        !- Name
  Door,                                   !- Sub Surface Type
  ,                                       !- Construction Name
  {2eb36d53-8956-4573-9d42-f3de2486a693}, !- Surface Name
  ,                                       !- Outside Boundary Condition Object
  ,                                       !- View Factor to Ground
  ,                                       !- Shading Control Name
  ,                                       !- Frame and Divider Name
  1,                                      !- Multiplier
  ,                                       !- Number of Vertices
  0, 39.5458713799669, 3.04785135876431,  !- X,Y,Z Vertex 1 {m}
  0, 39.5458713799669, 0,                 !- X,Y,Z Vertex 2 {m}
  0, 37.1075902929555, 0,                 !- X,Y,Z Vertex 3 {m}
  0, 37.1075902929555, 3.04785135876431;  !- X,Y,Z Vertex 4 {m}

OS:Surface,
  {eb38baf8-4819-4f38-99d7-de17082804a6}, !- Handle
  Fine Storage Floor,                     !- Name
  Floor,                                  !- Surface Type
  ,                                       !- Construction Name
  {cdd6a95f-f907-4c0e-817d-962525d358d0}, !- Space Name
  Ground,                                 !- Outside Boundary Condition
  ,                                       !- Outside Boundary Condition Object
  NoSun,                                  !- Sun Exposure
  NoWind,                                 !- Wind Exposure
  ,                                       !- View Factor to Ground
  ,                                       !- Number of Vertices
  45.7177703814647, 30.4785135876431, 0,  !- X,Y,Z Vertex 1 {m}
  45.7177703814647, 0, 0,                 !- X,Y,Z Vertex 2 {m}
  25.9067365494966, 0, 0,                 !- X,Y,Z Vertex 3 {m}
  25.9067365494966, 9.14355407629293, 0,  !- X,Y,Z Vertex 4 {m}
  0, 9.14355407629293, 0,                 !- X,Y,Z Vertex 5 {m}
  0, 30.4785135876431, 0;                 !- X,Y,Z Vertex 6 {m}

OS:SubSurface,
  {deca29f3-9920-47db-8341-dfaef5245578}, !- Handle
  Fine Storage Right Door,                !- Name
  Door,                                   !- Sub Surface Type
  ,                                       !- Construction Name
  {a0ba0fa9-aa51-4fbe-bdcc-bf0a22e397dd}, !- Surface Name
  ,                                       !- Outside Boundary Condition Object
  ,                                       !- View Factor to Ground
  ,                                       !- Shading Control Name
  ,                                       !- Frame and Divider Name
  1,                                      !- Multiplier
  ,                                       !- Number of Vertices
  45.7177703814647, 14.7820790900069, 2.13349595113502, !- X,Y,Z Vertex 1 {m}
  45.7177703814647, 14.7820790900069, 0,  !- X,Y,Z Vertex 2 {m}
  45.7177703814647, 15.6964344976362, 0,  !- X,Y,Z Vertex 3 {m}
  45.7177703814647, 15.6964344976362, 2.13349595113502; !- X,Y,Z Vertex 4 {m}

OS:Surface,
  {a0ba0fa9-aa51-4fbe-bdcc-bf0a22e397dd}, !- Handle
  Fine Storage Right Wall,                !- Name
  Wall,                                   !- Surface Type
  ,                                       !- Construction Name
  {cdd6a95f-f907-4c0e-817d-962525d358d0}, !- Space Name
  Outdoors,                               !- Outside Boundary Condition
  ,                                       !- Outside Boundary Condition Object
  SunExposed,                             !- Sun Exposure
  WindExposed,                            !- Wind Exposure
  ,                                       !- View Factor to Ground
  ,                                       !- Number of Vertices
  45.7177703814647, 0, 8.53398380454007,  !- X,Y,Z Vertex 1 {m}
  45.7177703814647, 0, 0,                 !- X,Y,Z Vertex 2 {m}
  45.7177703814647, 30.4785135876431, 0,  !- X,Y,Z Vertex 3 {m}
  45.7177703814647, 30.4785135876431, 8.53398380454007; !- X,Y,Z Vertex 4 {m}

OS:SubSurface,
  {71b64072-759e-42a0-8204-04b81749a0fb}, !- Handle
  Skylight_r3c3,                          !- Name
  Skylight,                               !- Sub Surface Type
  ,                                       !- Construction Name
  {516ff702-eb03-4a25-9228-e1ad9dc5895c}, !- Surface Name
  ,                                       !- Outside Boundary Condition Object
  ,                                       !- View Factor to Ground
  ,                                       !- Shading Control Name
  ,                                       !- Frame and Divider Name
  ,                                       !- Multiplier
  ,                                       !- Number of Vertices
  31.81889, 60.348914, 8.533984,          !- X,Y,Z Vertex 1 {m}
  31.81889, 61.568114, 8.533984,          !- X,Y,Z Vertex 2 {m}
  30.59969, 61.568114, 8.533984,          !- X,Y,Z Vertex 3 {m}
  30.59969, 60.348914, 8.533984;          !- X,Y,Z Vertex 4 {m}

OS:SubSurface,
  {65a4927d-efbe-4ffa-bee2-c79215c46ccd}, !- Handle
  Skylight_r4c1,                          !- Name
  Skylight,                               !- Sub Surface Type
  ,                                       !- Construction Name
  {516ff702-eb03-4a25-9228-e1ad9dc5895c}, !- Surface Name
  ,                                       !- Outside Boundary Condition Object
  ,                                       !- View Factor to Ground
  ,                                       !- Shading Control Name
  ,                                       !- Frame and Divider Name
  ,                                       !- Multiplier
  ,                                       !- Number of Vertices
  26.24105, 34.440914, 8.533984,          !- X,Y,Z Vertex 1 {m}
  26.24105, 35.660114, 8.533984,          !- X,Y,Z Vertex 2 {m}
  25.02185, 35.660114, 8.533984,          !- X,Y,Z Vertex 3 {m}
  25.02185, 34.440914, 8.533984;          !- X,Y,Z Vertex 4 {m}

OS:SubSurface,
  {000ddd2c-3ea4-4776-9e8e-e4d848761cac}, !- Handle
  Skylight_r6c1,                          !- Name
  Skylight,                               !- Sub Surface Type
  ,                                       !- Construction Name
  {516ff702-eb03-4a25-9228-e1ad9dc5895c}, !- Surface Name
  ,                                       !- Outside Boundary Condition Object
  ,                                       !- View Factor to Ground
  ,                                       !- Shading Control Name
  ,                                       !- Frame and Divider Name
  ,                                       !- Multiplier
  ,                                       !- Number of Vertices
  15.08537, 34.440914, 8.533984,          !- X,Y,Z Vertex 1 {m}
  15.08537, 35.660114, 8.533984,          !- X,Y,Z Vertex 2 {m}
  13.86617, 35.660114, 8.533984,          !- X,Y,Z Vertex 3 {m}
  13.86617, 34.440914, 8.533984;          !- X,Y,Z Vertex 4 {m}

OS:SubSurface,
  {74e5cc19-6b77-40e3-bb48-dd2003bc1d25}, !- Handle
  FineStorage_skylight_5,                 !- Name
  Skylight,                               !- Sub Surface Type
  ,                                       !- Construction Name
  {dcc10c35-212a-4ba7-8909-e38fa0c8d3e8}, !- Surface Name
  ,                                       !- Outside Boundary Condition Object
  ,                                       !- View Factor to Ground
  ,                                       !- Shading Control Name
  ,                                       !- Frame and Divider Name
  ,                                       !- Multiplier
  ,                                       !- Number of Vertices
  40.6146, 26.058914, 8.533984,           !- X,Y,Z Vertex 1 {m}
  40.6146, 27.278114, 8.533984,           !- X,Y,Z Vertex 2 {m}
  39.3954, 27.278114, 8.533984,           !- X,Y,Z Vertex 3 {m}
  39.3954, 26.058914, 8.533984;           !- X,Y,Z Vertex 4 {m}

OS:Surface,
  {dcc10c35-212a-4ba7-8909-e38fa0c8d3e8}, !- Handle
  Fine Storage Roof,                      !- Name
  RoofCeiling,                            !- Surface Type
  ,                                       !- Construction Name
  {cdd6a95f-f907-4c0e-817d-962525d358d0}, !- Space Name
  Outdoors,                               !- Outside Boundary Condition
  ,                                       !- Outside Boundary Condition Object
  SunExposed,                             !- Sun Exposure
  WindExposed,                            !- Wind Exposure
  ,                                       !- View Factor to Ground
  ,                                       !- Number of Vertices
  45.7177703814647, 0, 8.53398380454007,  !- X,Y,Z Vertex 1 {m}
  45.7177703814647, 30.4785135876431, 8.53398380454007, !- X,Y,Z Vertex 2 {m}